[TITLE]
Test network by Sai Krishna Hari

[JUNCTIONS]
;ID    Elev    Demand    Pattern
  2    35.0     0         ;
  3    30.0     60.33   demand;

[RESERVOIRS]
;ID    Head    Pattern
  1    0           ;

[TANKS]
;ID    Elevation    InitLevel    MinLevel    MaxLevel    Diameter    MinVol    VolCurve

[PIPES]
;ID    Node1    Node2    Length    Diameter    Roughness    MinorLoss    Status
  2        2        3    6000.0       300.0        130.0          0.0     Open;

[PUMPS]
;ID    Node1    Node2    Parameters
1        1        2       HEAD 1;

[VALVES]
;ID    Node1    Node2    Diameter    Type    Setting    MinorLoss

[TAGS]

[DEMANDS]
;Junction    Demand    Pattern    Category

[STATUS]
;ID    Status/Setting

[PATTERNS]
;ID          Multipliers
 demand 	0.7 1.2 1.6 1.8 5 1.0

[CURVES]
;ID    X-Value    Y-Value
1     100.000      260.0000
1     400.0      220.0000
1     600.0      170.00000

[CONTROLS]

[RULES]

[ENERGY]
 Global Efficiency  	    80.75
 Global Price       	    1.0
 Demand Charge      	    0.0

[EMITTERS]
;Junction  Coefficient

[QUALITY]
;Node  InitQual

[SOURCES]
;Node  Type  Quality  Pattern

[REACTIONS]

[MIXING]
;Tank  Model

[TIMES]
 Duration              6:00
 Hydraulic Timestep    1:00
 Quality Timestep      1:00
 Pattern Timestep      1:00
 Pattern Start         0:00
 Report Timestep       1:00
 Report Start          0:00
 Start ClockTime       12 am
 Statistic             NONE

[REPORT]
 Status     Yes
 Summary    No
 Page       0

[OPTIONS]
 Units                LPS
 Headloss             H-W
 Specific Gravity     1.0
 Viscosity            1.0
 Trials               40
 Accuracy             0.00001
 Unbalanced           Continue 10
 Pattern              1
 Demand Multiplier    1.0
 Emitter Exponent     0.5
 Quality              None mg/L
 Diffusivity          1.0
 Tolerance            0.01

[COORDINATES]
;Node   X-Coord  Y-Coord

[VERTICES]
;Link   X-Coord  Y-Coord

[LABELS]
;X-Coord   Y-Coord  Label & Anchor Node

[BACKDROP]

[END]
