[TITLE]
Test network by Sai Krishna Hari

[JUNCTIONS]
;ID    Elev    Demand    Pattern
  3    35.0     0         ;
  4    35.0     33.33   demand;

[RESERVOIRS]
;ID    Head    Pattern
  1    0           ;

[TANKS]
;ID    Elevation    InitLevel    MinLevel    MaxLevel    Diameter    MinVol    VolCurve


[PIPES]
;ID    Node1    Node2    Length    Diameter    Roughness    MinorLoss    Status
  2        2        3    6000.0       300.0        130.0          0.0     Open;




[PUMPS]
;ID    Node1    Node2    Parameters



[VALVES]
;ID    Node1    Node2    Diameter    Type    Setting    MinorLoss

[TAGS]

[DEMANDS]
;Junction    Demand    Pattern    Category

[STATUS]
;ID    Status/Setting

[PATTERNS]
;ID          Multipliers
demand      1.000

[CURVES]
;ID    X-Value    Y-Value
 1     0.0        138.952
 1     300.0      122.611
 1     400.0      60.446

[CONTROLS]

[RULES]

[ENERGY]
 Global Efficiency  	    80.75
 Global Price       	    1.0
 Demand Charge      	    0.0

[EMITTERS]
;Junction  Coefficient

[QUALITY]
;Node  InitQual

[SOURCES]
;Node  Type  Quality  Pattern

[REACTIONS]

[MIXING]
;Tank  Model

[TIMES]
 Duration              1:00
 Hydraulic Timestep    0:30
 Quality Timestep      0:05
 Pattern Timestep      0:30
 Pattern Start         0:00
 Report Timestep       0:30
 Report Start          0:00
 Start ClockTime       12 am
 Statistic             NONE

[REPORT]
 Status     Yes
 Summary    No
 Page       0

[OPTIONS]
 Units                LPS
 Headloss             H-W
 Specific Gravity     1.0
 Viscosity            1.0
 Trials               40
 Accuracy             0.00001
 Unbalanced           Continue 10
 Pattern              1
 Demand Multiplier    1.0
 Emitter Exponent     0.5
 Quality              None mg/L
 Diffusivity          1.0
 Tolerance            0.01

[COORDINATES]
;Node   X-Coord  Y-Coord

[VERTICES]
;Link   X-Coord  Y-Coord

[LABELS]
;X-Coord   Y-Coord  Label & Anchor Node

[BACKDROP]

[END]
